powerflow/Codes/PF_Formulation/resultados_csv/19/9bus_transformer_fields/barras.csv
caso,script,bus_id,vm_pu,va_rad,pd_pu,qd_pu,pg_pu,qg_pu,bus_type
9bus_transformer_fields.pwf,19,1,1.010631900443148,0.0,0.0,0.0,1.4273244507466918,0.3571126039316855,3
9bus_transformer_fields.pwf,19,2,1.003949684198488,-0.02564988608694116,0.0,0.0,0.9,-0.052437460471541415,2
9bus_transformer_fields.pwf,19,3,1.0177265053510316,-0.017381982153739713,0.0,0.0,0.85,-0.1962689616340399,2
9bus_transformer_fields.pwf,19,4,1.0432613312181367,-0.07442800942656369,0.0,0.0,0.0,0.0,1
9bus_transformer_fields.pwf,19,5,1.0116671026294637,-0.14076611187699073,1.25,0.5,0.0,0.0,1
9bus_transformer_fields.pwf,19,6,1.0251013890306206,-0.12143526789877368,0.9,0.3,0.0,0.0,1
9bus_transformer_fields.pwf,19,7,1.0269671287252613,-0.0792544202724655,0.0,0.0,0.0,0.0,1
9bus_transformer_fields.pwf,19,8,1.0157684694306734,-0.11270196931304248,1.0,0.35,0.0,0.0,1
9bus_transformer_fields.pwf,19,9,1.0301907765129958,-0.06490798647799254,0.0,0.0,0.0,0.0,1
